<?xml version="1.0" encoding="UTF-8"?>

<!-- generated on Wed Jul 25 18:11:45 2018 by Eclipse SUMO polyconvert Version UNKNOWN
<configuration xmlns:xsi="http://www.w3.org/2001/XMLSchema-instance" xsi:noNamespaceSchemaLocation="http://sumo.dlr.de/xsd/polyconvertConfiguration.xsd">

    <input>
        <net-file value="newark_square.net.xml"/>
        <xml-files value="new_shapes.xml"/>
    </input>

    <output>
        <output-file value="output.rou.xml"/>
    </output>

</configuration>
-->

<additional xmlns:xsi="http://www.w3.org/2001/XMLSchema-instance" xsi:noNamespaceSchemaLocation="http://sumo.dlr.de/xsd/additional_file.xsd">
    <location netOffset="-563845.08,-4506987.06" convBoundary="510.20,394.36,6913.75,6362.83" origBoundary="-74.244148,40.708059,-74.153421,40.783225" projParameter="+proj=utm +zone=18 +ellps=WGS84 +datum=WGS84 +units=m +no_defs"/>

    <poly id="poly_0" color="red" fill="0" layer="128.00" shape="268.470000,6417.270000 2393.790000,6426.550000 2245.300000,208.340000 129.250000,254.750000 249.900000,6333.740000 268.470000,6417.270000"/>
    <poly id="poly_1" color="red" fill="0" layer="128.00" shape="4389.190000,6565.760000 6987.840000,6417.270000 7145.610000,226.910000 5150.220000,208.340000 4361.340000,6500.800000 4389.190000,6565.760000"/>
</additional>
